/*--------------------------------*- C++ -*----------------------------------*\
| =========                 |                                                 |
| \\      /  F ield         | OpenFOAM: The Open Source CFD Toolbox           |
|  \\    /   O peration     | Version:  1.5                                   |
|   \\  /    A nd           | Web:      http://www.OpenFOAM.org               |
|    \\/     M anipulation  |                                                 |
\*---------------------------------------------------------------------------*/
FoamFile
{
    version     2.0;
    format      ascii;
    class       dictionary;
    object      fvSolution;
}
// * * * * * * * * * * * * * * * * * * * * * * * * * * * * * * * * * * * * * //

solvers
{
    T
    {
	solver  GAMG;
        tolerance        1e-10;
        //relTol           1e-08;
	maxIter		 10000;
	storage		    2;//COO=1 CSR=2 DIA=3 ELL=4 HYB=5 all other numbers use default COO
	linStrategy	;
        smoother        GaussSeidel;
        nPreSweeps      0;
        nPostSweeps     2;
        cacheAgglomeration true;
        nCellsInCoarsestLevel 1000;//100;//changed to sqrt(ncells) from http://www.cfd-online.com/Forums/openfoam/78273-gamg-hexa-vs-tetrahedron-meshes.html
        agglomerator    faceAreaPair;
        mergeLevels     1;

    };

}

SIMPLE
{
    nNonOrthogonalCorrectors 1;
}

// ************************************************************************* //
